test/data/three_phase/center_tap_xfmr_and_line_to_load/node.glm
module powerflow{
	solver_method NR;
	line_capacitance false;
    // NR_matrix_file "y_matrix_printout.txt";
    // NR_matrix_output_interval PER_CALL;
};


// object voltdump {
//     filename voltage.csv;
// 	mode RECT;
// }

object node:4385 {
	name R1-12-47-1_node_617;
	bustype SWING;
	phases ABCN;
	nominal_voltage 7216.88;
	voltage_A 7216.88+0.0j;
	voltage_B -3608.44-6250j;
	voltage_C -3608.44+6250j;
}

object switch:4379 {
	name R1-12-47-1_switch_9;
	phases ABCN;
	from R1-12-47-1_node_617;
	to R1-12-47-1_node_612;
	status CLOSED;
}

object node:646 {
	name R1-12-47-1_node_612;
	phases ABCN;
	voltage_A 7216.88+0.0j;
	voltage_B -3608.44-6250j;
	voltage_C -3608.44+6250j;
	nominal_voltage 7216.88;
}

object overhead_line:4210 {
	name R1-12-47-1_ol_301;
	phases ABCN;
	from R1-12-47-1_node_612;
	to R1-12-47-1_node_3;
	length 458.063;
	configuration line_configuration:22;
}

object line_configuration:22 {
	conductor_A overhead_line_conductor:4;
	conductor_B overhead_line_conductor:4;
	conductor_C overhead_line_conductor:4;
	conductor_N overhead_line_conductor:4;
	spacing line_spacing:13;
}

object overhead_line_conductor:4 {
	//name 336 ACSR;
	rating.summer.continuous 530.0;
	geometric_mean_radius 0.02300 ft;
	resistance 0.30300;
}

object line_spacing:13 {
	distance_AB 57.6 in;
	distance_BC 57.6 in;
	distance_AC 57.6 in;
	distance_AN 51.6 in;
	distance_BN 51.6 in;
	distance_CN 51.6 in;
}

object node:37 {
	name R1-12-47-1_node_3;
	phases ABCN;
	voltage_A 7216.88+0.0j;
	voltage_B -3608.44-6250j;
	voltage_C -3608.44+6250j;
	nominal_voltage 7216.88;
}

// Shared Config

object triplex_line_configuration:1 {
	conductor_1 triplex_1/0 AA;
	conductor_2 triplex_1/0 AA;
	conductor_N triplex_1/0 AA;
	insulation_thickness 0.08;
	diameter 0.368;
}

object triplex_line_conductor: {
	name triplex_1/0 AA;
	resistance 0.97;
	geometric_mean_radius 0.0111;
}

// // Phase A

// object transformer:3685 {
// 	name R1-12-47-1_xfmr_554;
// 	phases AS;
// 	from R1-12-47-1_node_3;
// 	to R1-12-47-1_tn_554;
// 	configuration transformer_configuration:3089;
// }

// object transformer_configuration:3089 {
// 	connect_type SINGLE_PHASE_CENTER_TAPPED;
// 	install_type POLETOP;
// 	primary_voltage 7216.88 V;
// 	secondary_voltage 120 V;
// 	power_rating 5;
// 	powerA_rating 5;
// 	resistance 0.015;
// 	reactance 0.01;
// }

// object triplex_node:1224 {
// 	name R1-12-47-1_tn_554;
// 	phases AS;
// 	voltage_1 120;
// 	voltage_2 120;
// 	voltage_N 0;
// 	nominal_voltage 120;
// }

// object triplex_line:3038 {
// 	name R1-12-47-1_tl_554;
// 	phases AS;
// 	from R1-12-47-1_tn_554;
// 	to R1-12-47-1_tm_554;
// 	length 30;
// 	configuration triplex_line_configuration:1;
// }

// object triplex_meter:2420 {
// 	name R1-12-47-1_tm_554;
// 	phases AS;
// 	voltage_1 120;
// 	voltage_2 120;
// 	voltage_N 0;
// 	nominal_voltage 120;
// }

// object triplex_node:1822 {
// 	name R1-12-47-1_tn_1152;
// 	phases AS;
// 	parent R1-12-47-1_tm_554;
// 	power_1 2300+1200j;
// 	voltage_1 120;
// 	voltage_2 120;
// 	voltage_N 0;
// 	nominal_voltage 120;
// }

// // Phase B

// object transformer:3686 {
// 	name R1-12-47-1_xfmr_555;
// 	phases BS;
// 	from R1-12-47-1_node_3;
// 	to R1-12-47-1_tn_555;
// 	configuration transformer_configuration:3110;
// }

// object transformer_configuration:3110 {
// 	connect_type SINGLE_PHASE_CENTER_TAPPED;
// 	install_type POLETOP;
// 	primary_voltage 7216.88 V;
// 	secondary_voltage 120 V;
// 	power_rating 50.0;
// 	powerB_rating 50.0;
// 	resistance 0.00300;
// 	reactance 0.00200;
// }

// object triplex_node:1225 {
// 	name R1-12-47-1_tn_555;
// 	phases BS;
// 	voltage_1 -60-103.92j;
// 	voltage_2 -60-103.92j;
// 	voltage_N 0;
// 	nominal_voltage 120;
// }

// object triplex_line:3039 {
// 	name R1-12-47-1_tl_555;
// 	phases BS;
// 	from R1-12-47-1_tn_555;
// 	to R1-12-47-1_tm_555;
// 	length 30;
// 	configuration triplex_line_configuration:1;
// }

// object triplex_meter:2421 {
// 	name R1-12-47-1_tm_555;
// 	phases BS;
// 	voltage_1 -60-103.92j;
// 	voltage_2 -60-103.92j;
// 	voltage_N 0;
// 	nominal_voltage 120;
// }

// object triplex_node:1823 {
// 	name R1-12-47-1_tn_1153;
// 	phases BS;
// 	parent R1-12-47-1_tm_555;
// 	power_1 35217.8172+13748.613j;
// 	voltage_1 -60-103.92j;
// 	voltage_2 -60-103.92j;
// 	voltage_N 0;
// 	nominal_voltage 120;
// }

// Phase C

object transformer:3687 {
	name R1-12-47-1_xfmr_556;
	phases CS;
	from R1-12-47-1_node_3;
	to R1-12-47-1_tn_556;
	configuration transformer_configuration:3115;
}

object transformer_configuration:3115 {
	connect_type SINGLE_PHASE_CENTER_TAPPED;
	install_type POLETOP;
	primary_voltage 7216.88 V;
	secondary_voltage 120 V;
	power_rating 5;
	powerC_rating 5;
	resistance 0.015;
	reactance 0.01;
}

object triplex_node:1226 {
	name R1-12-47-1_tn_556;
	phases CS;
	voltage_1 -60+103.92j;
	voltage_2 -60+103.92j;
	voltage_N 0;
	nominal_voltage 120;
    // object recorder {
    //     file tn_556_voltages.csv;
    //     property voltage_1, voltage_2, voltage_N;
    // };
}

object triplex_line:30401 {
	name R1-12-47-1_tl_5561;
	phases CS;
	from R1-12-47-1_tn_556;
	to R1-12-47-1_tn_5561;
	length 30;
	configuration triplex_line_configuration:1;
}

object triplex_node:12261 {
	name R1-12-47-1_tn_5561;
	phases CS;
	voltage_1 -60+103.92j;
	voltage_2 -60+103.92j;
	voltage_N 0;
	nominal_voltage 120;
    // object recorder {
    //     file tn_556_voltages.csv;
    //     property voltage_1, voltage_2, voltage_N;
    // };
}

object triplex_line:30402 {
	name R1-12-47-1_tl_5562;
	phases CS;
	from R1-12-47-1_tn_5561;
	to R1-12-47-1_tn_5562;
	length 30;
	configuration triplex_line_configuration:1;
}

object triplex_node:12262{
	name R1-12-47-1_tn_5562;
	phases CS;
	voltage_1 -60+103.92j;
	voltage_2 -60+103.92j;
	voltage_N 0;
	nominal_voltage 120;
    // object recorder {
    //     file tn_556_voltages.csv;
    //     property voltage_1, voltage_2, voltage_N;
    // };
}

object triplex_line:3040 {
	name R1-12-47-1_tl_556;
	phases CS;
	from R1-12-47-1_tn_5562;
	to R1-12-47-1_tm_556;
	length 30;
	configuration triplex_line_configuration:1;
}

object triplex_meter:2422 {
	name R1-12-47-1_tm_556;
	phases CS;
	voltage_1 -60+103.92j;
	voltage_2 -60+103.92j;
	voltage_N 0;
	nominal_voltage 120;
    // object recorder {
    //     file tm_556_voltages.csv;
    //     interval 1;
    //     property measured_voltage_1, measured_voltage_2, measured_voltage_N;
    // };
}

object triplex_node:1824 {
	name R1-12-47-1_tn_1154;
	phases CS;
	parent R1-12-47-1_tm_556;
	power_1 2300+1200j;
	power_2 2300+1200j;
	voltage_1 -60+103.92j;
	voltage_2 -60+103.92j;
	voltage_N 0;
	nominal_voltage 120;
    // object recorder {
    //     file tn_1154_voltages.csv;
    //     property voltage_1, voltage_2, voltage_N;
    // };
}



// object recorder { 
// 	parent R1-12-47-1_tm_556;
//     property "measured_voltage_1.real, measured_voltage_2.real,measured_voltage_1.imag, measured_voltage_2.imag"; 
//     file tm_556_voltages_rect.csv; 
//     interval 1; 
//     limit 10; 
// }; 



// object group_recorder {
// 	group "class=triplex_node";
//     property voltage_1;
//     file triplex_voltage1s.csv;
// }

// object group_recorder {
// 	group "class=triplex_node";
//     property voltage_2;
//     file triplex_voltage2s.csv;
// }


object voltdump {
     filename result.csv;
     mode RECT;
}



clock {
	timezone EST+8EDT;
	timestamp '2000-01-01 0:00:00';
	stoptime '2000-01-01 0:00:01';
}
