test/data/three_phase/center_tap_xfmr_and_line_to_load/result.csv
# result.csv run at 2000-01-01 00:00:00 EST on 21 powerflow objects (not all are nodes)
node_name,voltA_real,voltA_imag,voltB_real,voltB_imag,voltC_real,voltC_imag
R1-12-47-1_node_617,7216.880000,0.000000,-3608.440000,-6250.000000,-3608.440000,6250.000000
R1-12-47-1_node_612,7216.880000,0.000000,-3608.440000,-6250.000000,-3608.440070,6249.999923
R1-12-47-1_node_3,7216.902459,-0.006015,-3608.417541,-6250.006015,-3608.375515,6249.976322
R1-12-47-1_tn_556,-58.647399,102.067442,-58.647399,102.067442,0.000000,0.000000
R1-12-47-1_tn_5561,-58.621362,101.946596,-58.621362,101.946596,0.000000,0.000000
R1-12-47-1_tn_5562,-58.595324,101.825751,-58.595324,101.825751,0.000000,0.000000
R1-12-47-1_tm_556,-58.569287,101.704905,-58.569287,101.704905,0.000000,0.000000
R1-12-47-1_tn_1154,-58.569287,101.704905,-58.569287,101.704905,0.000000,0.000000
